data_10-TOPOS_Kai_I_reduced
_audit_creation_date                2015-05-21
_audit_creation_method              'TOPOS 4.0 Pro'
_chemical_formula_structural        Kai_I_reduced
_chemical_formula_sum               'C24 H14 O16 Zr3'
_citation_special_details
;
File: 1.cif. 
;
_cell_length_a                      14.834
_cell_length_b                      14.834
_cell_length_c                      14.834
_cell_angle_alpha                   60
_cell_angle_beta                    60
_cell_angle_gamma                   60
_cell_volume                        2308.127
_cell_formula_units_Z               2
_symmetry_space_group_name_H-M      'P 1'
_symmetry_Int_Tables_number         1
_refine_ls_R_factor_all             0
loop_
_symmetry_equiv_pos_site_id
_symmetry_equiv_pos_as_xyz
1 x,y,z
loop_
_atom_site_label
_atom_site_type_symbol
_atom_site_symmetry_multiplicity
_atom_site_fract_x
_atom_site_fract_y
_atom_site_fract_z
_atom_site_occupancy
H1 H 1 0.59090 0.13800 0.42200 1.0000
H2 H 1 0.13800 0.59090 0.84910 1.0000
H3 H 1 0.42200 0.84910 0.59090 1.0000
H4 H 1 0.84910 0.42200 0.13800 1.0000
H5 H 1 0.42200 0.13800 0.84910 1.0000
H6 H 1 0.84910 0.13800 0.59090 1.0000
H7 H 1 0.13800 0.42200 0.59090 1.0000
H8 H 1 0.42200 0.59090 0.13800 1.0000
H9 H 1 0.84910 0.59090 0.42200 1.0000
H10 H 1 0.13800 0.84910 0.42200 1.0000
H11 H 1 0.59090 0.84910 0.13800 1.0000
H12 H 1 0.59090 0.42200 0.84910 1.0000
H13 H 1 0.59090 0.13800 0.84910 1.0000
H14 H 1 0.13800 0.59090 0.42200 1.0000
H15 H 1 0.42200 0.84910 0.13800 1.0000
H16 H 1 0.84910 0.42200 0.59090 1.0000
H17 H 1 0.42200 0.13800 0.59090 1.0000
H18 H 1 0.84910 0.13800 0.42200 1.0000
H19 H 1 0.13800 0.42200 0.84910 1.0000
H20 H 1 0.42200 0.59090 0.84910 1.0000
H21 H 1 0.84910 0.59090 0.13800 1.0000
H22 H 1 0.13800 0.84910 0.59090 1.0000
H23 H 1 0.59090 0.84910 0.42200 1.0000
H24 H 1 0.59090 0.42200 0.13800 1.0000
H25 H 1 0.09377 0.09377 0.71869 1.0000
H26 H 1 0.09377 0.71869 0.09377 1.0000
H27 H 1 0.09377 0.09377 0.09377 1.0000
H28 H 1 0.71869 0.09377 0.09377 1.0000
C1 C 1 0.99590 0.30880 0.99590 1.0000
C2 C 1 0.55340 0.07530 0.45960 1.0000
C3 C 1 0.07530 0.55340 0.91170 1.0000
C4 C 1 0.45960 0.91170 0.55340 1.0000
C5 C 1 0.91170 0.45960 0.07530 1.0000
C6 C 1 0.45960 0.07530 0.91170 1.0000
C7 C 1 0.91170 0.07530 0.55340 1.0000
C8 C 1 0.07530 0.45960 0.55340 1.0000
C9 C 1 0.45960 0.55340 0.07530 1.0000
C10 C 1 0.91170 0.55340 0.45960 1.0000
C11 C 1 0.07530 0.91170 0.45960 1.0000
C12 C 1 0.55340 0.91170 0.07530 1.0000
C13 C 1 0.55340 0.45960 0.91170 1.0000
C14 C 1 0.55340 0.07530 0.91170 1.0000
C15 C 1 0.07530 0.55340 0.45960 1.0000
C16 C 1 0.45960 0.91170 0.07530 1.0000
C17 C 1 0.91170 0.45960 0.55340 1.0000
C18 C 1 0.45960 0.07530 0.55340 1.0000
C19 C 1 0.91170 0.07530 0.45960 1.0000
C20 C 1 0.07530 0.45960 0.91170 1.0000
C21 C 1 0.45960 0.55340 0.91170 1.0000
C22 C 1 0.91170 0.55340 0.07530 1.0000
C23 C 1 0.07530 0.91170 0.55340 1.0000
C24 C 1 0.55340 0.91170 0.45960 1.0000
C25 C 1 0.55340 0.45960 0.07530 1.0000
C26 C 1 0.30880 0.99590 0.69940 1.0000
C27 C 1 0.99590 0.69940 0.99590 1.0000
C28 C 1 0.69940 0.99590 0.30880 1.0000
C29 C 1 0.99590 0.30880 0.69940 1.0000
C30 C 1 0.69940 0.30880 0.99590 1.0000
C31 C 1 0.30880 0.99590 0.99590 1.0000
C32 C 1 0.99590 0.99590 0.30880 1.0000
C33 C 1 0.69940 0.99590 0.99590 1.0000
C34 C 1 0.30880 0.69940 0.99590 1.0000
C35 C 1 0.99590 0.69940 0.30880 1.0000
C36 C 1 0.99590 0.99590 0.69940 1.0000
C37 C 1 0.60050 0.99380 0.99380 1.0000
C38 C 1 0.99380 0.60050 0.41190 1.0000
C39 C 1 0.41190 0.99380 0.99380 1.0000
C40 C 1 0.99380 0.41190 0.60050 1.0000
C41 C 1 0.41190 0.99380 0.60050 1.0000
C42 C 1 0.99380 0.99380 0.41190 1.0000
C43 C 1 0.99380 0.41190 0.99380 1.0000
C44 C 1 0.41190 0.60050 0.99380 1.0000
C45 C 1 0.99380 0.60050 0.99380 1.0000
C46 C 1 0.99380 0.99380 0.60050 1.0000
C47 C 1 0.60050 0.99380 0.41190 1.0000
C48 C 1 0.60050 0.41190 0.99380 1.0000
O1 O 1 0.06727 0.06727 0.06727 1.0000
O2 O 1 0.73730 0.07360 0.26790 1.0000
O3 O 1 0.07360 0.73730 0.92120 1.0000
O4 O 1 0.26790 0.92120 0.73730 1.0000
O5 O 1 0.92120 0.26790 0.07360 1.0000
O6 O 1 0.26790 0.07360 0.92120 1.0000
O7 O 1 0.92120 0.07360 0.73730 1.0000
O8 O 1 0.07360 0.26790 0.73730 1.0000
O9 O 1 0.26790 0.73730 0.07360 1.0000
O10 O 1 0.92120 0.73730 0.26790 1.0000
O11 O 1 0.07360 0.92120 0.26790 1.0000
O12 O 1 0.73730 0.92120 0.07360 1.0000
O13 O 1 0.73730 0.26790 0.92120 1.0000
O14 O 1 0.73730 0.07360 0.92120 1.0000
O15 O 1 0.07360 0.73730 0.26790 1.0000
O16 O 1 0.26790 0.92120 0.07360 1.0000
O17 O 1 0.92120 0.26790 0.73730 1.0000
O18 O 1 0.26790 0.07360 0.73730 1.0000
O19 O 1 0.92120 0.07360 0.26790 1.0000
O20 O 1 0.07360 0.26790 0.92120 1.0000
O21 O 1 0.26790 0.73730 0.92120 1.0000
O22 O 1 0.92120 0.73730 0.07360 1.0000
O23 O 1 0.07360 0.92120 0.73730 1.0000
O24 O 1 0.73730 0.92120 0.26790 1.0000
O25 O 1 0.73730 0.26790 0.07360 1.0000
O26 O 1 0.06727 0.06727 0.79819 1.0000
O27 O 1 0.06727 0.79819 0.06727 1.0000
O28 O 1 0.79819 0.06727 0.06727 1.0000
O29 O 1 0.95057 0.95057 0.95057 1.0000
O30 O 1 0.14829 0.95057 0.95057 1.0000
O31 O 1 0.95057 0.14829 0.95057 1.0000
O32 O 1 0.95057 0.95057 0.14829 1.0000
Zr1 Zr 1 0.87960 0.12040 0.12040 1.0000
Zr2 Zr 1 0.12040 0.87960 0.87960 1.0000
Zr3 Zr 1 0.12040 0.12040 0.87960 1.0000
Zr4 Zr 1 0.87960 0.12040 0.87960 1.0000
Zr5 Zr 1 0.12040 0.87960 0.12040 1.0000
Zr6 Zr 1 0.87960 0.87960 0.12040 1.0000
#End of data_10-TOPOS_Kai_I_reduced

data_12-TOPOS_Kai_II_reduced
_audit_creation_date                2015-05-21
_audit_creation_method              'TOPOS 4.0 Pro'
_chemical_formula_structural        Kai_II_reduced
_chemical_formula_sum               'C42 H26 O16 Zr3'
_citation_special_details
;
File: 1.cif. 
;
_cell_length_a                      19.1585
_cell_length_b                      19.1585
_cell_length_c                      19.1585
_cell_angle_alpha                   60
_cell_angle_beta                    60
_cell_angle_gamma                   60
_cell_volume                        4972.44
_cell_formula_units_Z               2
_symmetry_space_group_name_H-M      'P 1'
_symmetry_Int_Tables_number         1
_refine_ls_R_factor_all             0
loop_
_symmetry_equiv_pos_site_id
_symmetry_equiv_pos_as_xyz
1 x,y,z
loop_
_atom_site_label
_atom_site_type_symbol
_atom_site_symmetry_multiplicity
_atom_site_fract_x
_atom_site_fract_y
_atom_site_fract_z
_atom_site_occupancy
H1 H 1 0.90677 0.53299 0.43747 1.0000
H2 H 1 0.90600 0.66220 0.30830 1.0000
H3 H 1 0.86200 0.07640 0.48090 1.0000
H4 H 1 0.86610 0.07990 0.34790 1.0000
H5 H 1 0.07990 0.86610 0.70610 1.0000
H6 H 1 0.34790 0.70610 0.86610 1.0000
H7 H 1 0.70610 0.34790 0.07990 1.0000
H8 H 1 0.34790 0.07990 0.70610 1.0000
H9 H 1 0.70610 0.07990 0.86610 1.0000
H10 H 1 0.07990 0.34790 0.86610 1.0000
H11 H 1 0.34790 0.86610 0.07990 1.0000
H12 H 1 0.70610 0.86610 0.34790 1.0000
H13 H 1 0.07990 0.70610 0.34790 1.0000
H14 H 1 0.86610 0.70610 0.07990 1.0000
H15 H 1 0.86610 0.34790 0.70610 1.0000
H16 H 1 0.07640 0.86200 0.58070 1.0000
H17 H 1 0.48090 0.58070 0.86200 1.0000
H18 H 1 0.58070 0.48090 0.07640 1.0000
H19 H 1 0.48090 0.07640 0.58070 1.0000
H20 H 1 0.58070 0.07640 0.86200 1.0000
H21 H 1 0.07640 0.48090 0.86200 1.0000
H22 H 1 0.48090 0.86200 0.07640 1.0000
H23 H 1 0.58070 0.86200 0.48090 1.0000
H24 H 1 0.07640 0.58070 0.48090 1.0000
H25 H 1 0.86200 0.58070 0.07640 1.0000
H26 H 1 0.86200 0.48090 0.58070 1.0000
H27 H 1 0.66220 0.90600 0.12350 1.0000
H28 H 1 0.30830 0.12350 0.90600 1.0000
H29 H 1 0.12350 0.30830 0.66220 1.0000
H30 H 1 0.30830 0.66220 0.12350 1.0000
H31 H 1 0.12350 0.66220 0.90600 1.0000
H32 H 1 0.66220 0.30830 0.90600 1.0000
H33 H 1 0.30830 0.90600 0.66220 1.0000
H34 H 1 0.12350 0.90600 0.30830 1.0000
H35 H 1 0.66220 0.12350 0.30830 1.0000
H36 H 1 0.90600 0.12350 0.66220 1.0000
H37 H 1 0.90600 0.30830 0.12350 1.0000
H38 H 1 0.53299 0.90677 0.12277 1.0000
H39 H 1 0.43747 0.12277 0.90677 1.0000
H40 H 1 0.12277 0.43747 0.53299 1.0000
H41 H 1 0.43747 0.53299 0.12277 1.0000
H42 H 1 0.12277 0.53299 0.90677 1.0000
H43 H 1 0.53299 0.43747 0.90677 1.0000
H44 H 1 0.43747 0.90677 0.53299 1.0000
H45 H 1 0.12277 0.90677 0.43747 1.0000
H46 H 1 0.53299 0.12277 0.43747 1.0000
H47 H 1 0.90677 0.12277 0.53299 1.0000
H48 H 1 0.90677 0.43747 0.12277 1.0000
H49 H 1 0.07260 0.07260 0.78220 1.0000
H50 H 1 0.07260 0.78220 0.07260 1.0000
H51 H 1 0.07260 0.07260 0.07260 1.0000
H52 H 1 0.78220 0.07260 0.07260 1.0000
C1 C 1 0.94327 0.57157 0.41957 1.0000
C2 C 1 0.94330 0.64360 0.34640 1.0000
C3 C 1 0.99232 0.99172 0.46924 1.0000
C4 C 1 0.99500 0.99330 0.31970 1.0000
C5 C 1 0.99737 0.99577 0.23929 1.0000
C6 C 1 0.92023 0.04033 0.44251 1.0000
C7 C 1 0.92173 0.04193 0.36843 1.0000
C8 C 1 0.04193 0.92173 0.66791 1.0000
C9 C 1 0.36843 0.66791 0.92173 1.0000
C10 C 1 0.66791 0.36843 0.04193 1.0000
C11 C 1 0.36843 0.04193 0.66791 1.0000
C12 C 1 0.66791 0.04193 0.92173 1.0000
C13 C 1 0.04193 0.36843 0.92173 1.0000
C14 C 1 0.36843 0.92173 0.04193 1.0000
C15 C 1 0.66791 0.92173 0.36843 1.0000
C16 C 1 0.04193 0.66791 0.36843 1.0000
C17 C 1 0.92173 0.66791 0.04193 1.0000
C18 C 1 0.92173 0.36843 0.66791 1.0000
C19 C 1 0.04033 0.92023 0.59693 1.0000
C20 C 1 0.44251 0.59693 0.92023 1.0000
C21 C 1 0.59693 0.44251 0.04033 1.0000
C22 C 1 0.44251 0.04033 0.59693 1.0000
C23 C 1 0.59693 0.04033 0.92023 1.0000
C24 C 1 0.04033 0.44251 0.92023 1.0000
C25 C 1 0.44251 0.92023 0.04033 1.0000
C26 C 1 0.59693 0.92023 0.44251 1.0000
C27 C 1 0.04033 0.59693 0.44251 1.0000
C28 C 1 0.92023 0.59693 0.04033 1.0000
C29 C 1 0.92023 0.44251 0.59693 1.0000
C30 C 1 0.99577 0.99737 0.76757 1.0000
C31 C 1 0.23929 0.76757 0.99737 1.0000
C32 C 1 0.76757 0.23929 0.99577 1.0000
C33 C 1 0.23929 0.99577 0.76757 1.0000
C34 C 1 0.76757 0.99577 0.99737 1.0000
C35 C 1 0.99577 0.23929 0.99737 1.0000
C36 C 1 0.23929 0.99737 0.99577 1.0000
C37 C 1 0.76757 0.99737 0.23929 1.0000
C38 C 1 0.99577 0.76757 0.23929 1.0000
C39 C 1 0.99737 0.76757 0.99577 1.0000
C40 C 1 0.99737 0.23929 0.76757 1.0000
C41 C 1 0.99330 0.99500 0.69200 1.0000
C42 C 1 0.31970 0.69200 0.99500 1.0000
C43 C 1 0.69200 0.31970 0.99330 1.0000
C44 C 1 0.31970 0.99330 0.69200 1.0000
C45 C 1 0.69200 0.99330 0.99500 1.0000
C46 C 1 0.99330 0.31970 0.99500 1.0000
C47 C 1 0.31970 0.99500 0.99330 1.0000
C48 C 1 0.69200 0.99500 0.31970 1.0000
C49 C 1 0.99330 0.69200 0.31970 1.0000
C50 C 1 0.99500 0.69200 0.99330 1.0000
C51 C 1 0.99500 0.31970 0.69200 1.0000
C52 C 1 0.99172 0.99232 0.54672 1.0000
C53 C 1 0.46924 0.54672 0.99232 1.0000
C54 C 1 0.54672 0.46924 0.99172 1.0000
C55 C 1 0.46924 0.99172 0.54672 1.0000
C56 C 1 0.54672 0.99172 0.99232 1.0000
C57 C 1 0.99172 0.46924 0.99232 1.0000
C58 C 1 0.46924 0.99232 0.99172 1.0000
C59 C 1 0.54672 0.99232 0.46924 1.0000
C60 C 1 0.99172 0.54672 0.46924 1.0000
C61 C 1 0.99232 0.54672 0.99172 1.0000
C62 C 1 0.99232 0.46924 0.54672 1.0000
C63 C 1 0.64360 0.94330 0.06670 1.0000
C64 C 1 0.34640 0.06670 0.94330 1.0000
C65 C 1 0.06670 0.34640 0.64360 1.0000
C66 C 1 0.34640 0.64360 0.06670 1.0000
C67 C 1 0.06670 0.64360 0.94330 1.0000
C68 C 1 0.64360 0.34640 0.94330 1.0000
C69 C 1 0.34640 0.94330 0.64360 1.0000
C70 C 1 0.06670 0.94330 0.34640 1.0000
C71 C 1 0.64360 0.06670 0.34640 1.0000
C72 C 1 0.94330 0.06670 0.64360 1.0000
C73 C 1 0.94330 0.34640 0.06670 1.0000
C74 C 1 0.57157 0.94327 0.06559 1.0000
C75 C 1 0.41957 0.06559 0.94327 1.0000
C76 C 1 0.06559 0.41957 0.57157 1.0000
C77 C 1 0.41957 0.57157 0.06559 1.0000
C78 C 1 0.06559 0.57157 0.94327 1.0000
C79 C 1 0.57157 0.41957 0.94327 1.0000
C80 C 1 0.41957 0.94327 0.57157 1.0000
C81 C 1 0.06559 0.94327 0.41957 1.0000
C82 C 1 0.57157 0.06559 0.41957 1.0000
C83 C 1 0.94327 0.06559 0.57157 1.0000
C84 C 1 0.94327 0.41957 0.06559 1.0000
O1 O 1 0.96172 0.96172 0.96172 1.0000
O2 O 1 0.05207 0.05207 0.05207 1.0000
O3 O 1 0.93980 0.79500 0.20590 1.0000
O4 O 1 0.93817 0.05449 0.20897 1.0000
O5 O 1 0.05449 0.93817 0.79837 1.0000
O6 O 1 0.20897 0.79837 0.93817 1.0000
O7 O 1 0.79837 0.20897 0.05449 1.0000
O8 O 1 0.20897 0.05449 0.79837 1.0000
O9 O 1 0.79837 0.05449 0.93817 1.0000
O10 O 1 0.05449 0.20897 0.93817 1.0000
O11 O 1 0.20897 0.93817 0.05449 1.0000
O12 O 1 0.79837 0.93817 0.20897 1.0000
O13 O 1 0.05449 0.79837 0.20897 1.0000
O14 O 1 0.93817 0.79837 0.05449 1.0000
O15 O 1 0.93817 0.20897 0.79837 1.0000
O16 O 1 0.79500 0.93980 0.05930 1.0000
O17 O 1 0.20590 0.05930 0.93980 1.0000
O18 O 1 0.05930 0.20590 0.79500 1.0000
O19 O 1 0.20590 0.79500 0.05930 1.0000
O20 O 1 0.05930 0.79500 0.93980 1.0000
O21 O 1 0.79500 0.20590 0.93980 1.0000
O22 O 1 0.20590 0.93980 0.79500 1.0000
O23 O 1 0.05930 0.93980 0.20590 1.0000
O24 O 1 0.79500 0.05930 0.20590 1.0000
O25 O 1 0.93980 0.05930 0.79500 1.0000
O26 O 1 0.93980 0.20590 0.05930 1.0000
O27 O 1 0.05207 0.05207 0.84379 1.0000
O28 O 1 0.05207 0.84379 0.05207 1.0000
O29 O 1 0.84379 0.05207 0.05207 1.0000
O30 O 1 0.96172 0.96172 0.11484 1.0000
O31 O 1 0.96172 0.11484 0.96172 1.0000
O32 O 1 0.11484 0.96172 0.96172 1.0000
Zr1 Zr 1 0.09320 0.09320 0.90680 1.0000
Zr2 Zr 1 0.90680 0.90680 0.09320 1.0000
Zr3 Zr 1 0.90680 0.09320 0.90680 1.0000
Zr4 Zr 1 0.90680 0.09320 0.09320 1.0000
Zr5 Zr 1 0.09320 0.90680 0.09320 1.0000
Zr6 Zr 1 0.09320 0.90680 0.90680 1.0000
#End of data_12-TOPOS_Kai_II_reduced

