 # fodMC guess
  
 _chemical_name_common                  'DUT-8(Ni) open, exp'
_cell_length_a                           18.43100000
_cell_length_b                           18.43100000
_cell_length_c                            9.39100000
_cell_angle_alpha                        90.0000
_cell_angle_beta                         90.0000
_cell_angle_gamma                        90.0000
 _space_group_name_H-M_alt              'P 1'
 loop_
    _atom_site_type_symbol
    _atom_site_fract_x
    _atom_site_fract_y
    _atom_site_fract_z
O       0.31069839     0.18186968     0.39243371
O       0.66207645     0.83467316     0.60905601
O       0.66207645     0.69014112     0.60905601
O       0.31069839     0.32640171     0.39243371
O       0.15134610     0.17711226     0.60511021
O       0.82142873     0.83943058     0.39637962
O       0.82142873     0.68538365     0.39637962
O       0.15134610     0.33115919     0.60511021
O       0.17194781     0.17791531     0.36933937
O       0.80082703     0.83862753     0.63215025
O       0.80082703     0.68618670     0.63215025
O       0.17194781     0.33035608     0.36933937
O       0.28268987     0.17632950     0.62582100
O       0.69008497     0.84021328     0.37566883
O       0.69008497     0.68460094     0.37566883
O       0.28268987     0.33194189     0.62582100
C       0.13651148     0.15277625     0.47865201
C       0.83626331     0.86376659     0.52283772
C       0.83626331     0.66104764     0.52283772
C       0.13651148     0.35549520     0.47865201
C       0.08024122     0.10000749     0.46963859
C       0.89253361     0.91653540     0.53185113
C       0.89253361     0.60827882     0.53185113
C       0.08024122     0.40826396     0.46963859
C       0.03387879     0.07738940     0.58315749
C       0.93889610     0.93915338     0.41833234
C       0.93889610     0.58566084     0.41833234
C       0.03387879     0.43088199     0.58315749
H       0.03737117     0.10532402     0.68457832
H       0.93540367     0.91121882     0.31691140
H       0.93540367     0.61359536     0.31691140
H       0.03737117     0.40294737     0.68457832
C       0.39617205     0.05779046     0.67337174
C       0.57660279     0.95875237     0.32811809
C       0.57660279     0.56606185     0.32811809
C       0.39617205     0.45048093     0.67337174
H       0.36769090     0.07403483     0.76879363
H       0.60508393     0.94250800     0.23269609
H       0.60508393     0.58230628     0.23269609
H       0.36769090     0.43423661     0.76879363
C       0.94792073     0.01411329     0.67701714
C       0.02485416     0.00242955     0.32447269
C       0.02485416     0.50584190     0.32447269
C       0.94792073     0.51070099     0.67701714
H       0.94917622     0.02631827     0.77740645
H       0.02359867     0.99022451     0.22408338
H       0.02359867     0.53458971     0.22408338
H       0.94917622     0.48195312     0.77740645
C       0.98254615     0.01902968     0.56598190
C       0.99022864     0.99751321     0.43550783
C       0.99022864     0.52730107     0.43550783
C       0.98254615     0.48924177     0.56598190
H       0.35027123     0.30217753     0.10784038
H       0.62250366     0.71436536     0.89364935
H       0.62250366     0.81044892     0.89364935
H       0.35027123     0.20609392     0.10784038
H       0.31995057     0.20608372     0.86180204
H       0.65282426     0.81045912     0.13968779
H       0.65282426     0.71435516     0.13968779
H       0.31995057     0.30218767     0.86180204
C       0.31873116     0.15117009     0.51656842
C       0.65404368     0.86537274     0.48492131
C       0.65404368     0.65944148     0.48492131
C       0.31873116     0.35710130     0.51656842
C       0.37450730     0.08688389     0.54068427
C       0.59826754     0.92965884     0.46080556
C       0.59826754     0.59515534     0.46080556
C       0.37450730     0.42138750     0.54068427
C       0.41453898     0.06188715     0.41982451
C       0.55823585     0.95465569     0.58166532
C       0.55823585     0.57015859     0.58166532
C       0.41453898     0.44638424     0.41982451
H       0.39807048     0.08052037     0.31580982
H       0.57470436     0.93602252     0.68567991
H       0.57470436     0.58879176     0.68567991
H       0.39807048     0.42775107     0.31580982
C       0.07385063     0.06114503     0.34056661
C       0.89892415     0.95539775     0.66092312
C       0.89892415     0.56941647     0.66092312
C       0.07385063     0.44712636     0.34056661
H       0.10762189     0.07599674     0.25089320
H       0.86515295     0.94054609     0.75059653
H       0.86515295     0.58426819     0.75059653
H       0.10762189     0.43227470     0.25089320
C       0.45531930     0.00890489     0.68695187
C       0.51745554     0.00763795     0.31453786
C       0.51745554     0.51717633     0.31453786
C       0.45531930     0.49936650     0.68695187
H       0.46897472     0.00557436     0.79196816
H       0.50380012     0.01096848     0.20952167
H       0.50380012     0.49730297     0.20952167
H       0.46897472     0.51923987     0.79196816
C       0.47587863     0.01329640     0.43325450
C       0.49689626     0.00324643     0.56823523
C       0.49689626     0.52156779     0.56823523
C       0.47587863     0.49497504     0.43325450
C       0.20947084     0.18977836     0.04918315
C       0.76330400     0.82676447     0.95230657
C       0.76330400     0.69804975     0.95230657
C       0.20947084     0.31849303     0.04918315
H       0.23360735     0.13908339     0.09246758
H       0.73916749     0.87745944     0.90902226
H       0.73916749     0.64735478     0.90902226
H       0.23360735     0.36918800     0.09246758
H       0.15091590     0.18797911     0.07860696
H       0.82185888     0.82856367     0.92288287
H       0.82185888     0.69625056     0.92288287
H       0.15091590     0.32029228     0.07860696
C       0.17569589     0.19003250     0.87946832
C       0.79707894     0.82651028     0.12202151
C       0.79707894     0.69830394     0.12202151
C       0.17569589     0.31823889     0.87946832
H       0.11953649     0.18875167     0.83503216
H       0.85323835     0.82779111     0.16645757
H       0.85323835     0.69702311     0.16645757
H       0.11953649     0.31951972     0.83503216
H       0.20189762     0.13947984     0.84135151
H       0.77087722     0.87706299     0.16013822
H       0.77087722     0.64775129     0.16013822
H       0.20189762     0.36879155     0.84135151
Ni      0.21603342     0.25413570     0.61964178
Ni      0.75674141     0.76240714     0.38184805
Ni      0.24482822     0.25413570     0.35039123
Ni      0.72794667     0.76240714     0.65109861
N       0.21567956     0.25413570     0.82068076
N       0.75709527     0.76240714     0.18080897
N       0.24450860     0.25413570     0.11867650
N       0.72826624     0.76240714     0.88281323
C       0.32112729     0.25413570     0.06498669
C       0.65164755     0.76240714     0.93650314
C       0.28780777     0.25413570     0.89553221
C       0.68496707     0.76240714     0.10595762
