 # fodMC guess
  
 _chemical_name_common                  'DUT-8(Ni) closed, vc-relaxed'
_cell_length_a                            6.67243078
_cell_length_b                            7.77637739
_cell_length_c                           12.14933471
_cell_angle_alpha                        89.9810
_cell_angle_beta                        101.9728
_cell_angle_gamma                       101.2792
 _space_group_name_H-M_alt              'P 1'
 loop_
    _atom_site_type_symbol
    _atom_site_fract_x
    _atom_site_fract_y
    _atom_site_fract_z
H       0.65455088     0.46862425     0.45122230
H       0.78598130     0.37127416     0.56946055
H       0.67929538     0.84615831     0.45286674
H       0.64528271     0.95865827     0.57224386
H       0.78555403     0.47893664     0.75221859
H       0.58739332     0.59146244     0.77372074
H       0.40257049     0.71865145     0.61516713
H       0.38557484     0.63624800     0.47672904
H       0.79668792     0.87030472     0.75484547
H       0.01011050     0.75873515     0.77132299
H       0.06313388     0.61546425     0.60984958
H       0.96581311     0.68282154     0.47290386
H       0.26022806     0.55443417     0.93011314
H       0.35452748     0.52995532     0.13824255
H       0.06682555     0.99417805     0.88801856
H       0.10193034     0.80751948     0.05382356
H       0.19307533     0.78277356     0.26221153
H       0.38805163     0.34292116     0.30512404
H       0.95170440     0.53879893     0.28787663
H       0.81313370     0.52679001     0.08010371
H       0.79490911     0.97658052     0.29073664
H       0.63955369     0.80026347     0.11164402
H       0.50283705     0.78839414     0.90380330
H       0.65962931     0.35070359     0.90134763
C       0.32374087     0.05873722     0.42038892
C       0.98258168     0.25545082     0.42246861
C       0.47320734     0.07280729     0.76920436
C       0.85378216     0.76246447     0.72169516
C       0.92549535     0.64776052     0.55389922
C       0.70168624     0.58320997     0.72175843
C       0.49288129     0.67998168     0.55705470
C       0.87893960     0.25667996     0.30106727
C       0.73661964     0.49233342     0.53939432
C       0.66950562     0.83354153     0.54143987
C       0.88447182     0.41375901     0.24142452
C       0.80990460     0.40660795     0.12672383
C       0.73062633     0.24290968     0.06594116
C       0.72240482     0.08417347     0.12602571
C       0.79576468     0.09606195     0.24387517
C       0.64318209     0.92054681     0.06510750
C       0.56949940     0.91344023     0.95031986
C       0.57579939     0.07053865     0.89064209
C       0.65813928     0.23112362     0.94805260
C       0.12664181     0.27674543     0.77173892
C       0.15484214     0.27389107     0.89692889
C       0.23795287     0.42686728     0.96808511
C       0.29194256     0.41279108     0.08290336
C       0.27111460     0.24592575     0.13200703
C       0.18594026     0.09149391     0.06060447
C       0.12694242     0.11050637     0.94362835
C       0.16449511     0.92444795     0.10936431
C       0.21674895     0.91021521     0.22417551
C       0.29893613     0.06306998     0.29542847
C       0.32875878     0.22671063     0.24908120
N       0.87488861     0.80313925     0.60456922
N       0.58408185     0.52999904     0.60500232
O       0.53382966     0.20981204     0.71845772
O       0.32228802     0.94747442     0.72625371
O       0.92400088     0.11790539     0.47323989
O       0.23405200     0.40301022     0.72840611
O       0.01106472     0.14168382     0.71629040
O       0.43628257     0.19444461     0.47625743
O       0.21861566     0.93110148     0.46313597
O       0.13020554     0.38234388     0.46566031
Ni      0.10838963     0.02174040     0.59718825
Ni      0.34514544     0.31037499     0.59807823
