 # fodMC guess
  
 _chemical_name_common                  'DUT-8(Ni) open, vc-relaxed'
_cell_length_a                           18.66123102
_cell_length_b                           18.42435073
_cell_length_c                            9.16385038
_cell_angle_alpha                        89.9832
_cell_angle_beta                         89.9782
_cell_angle_gamma                        89.9689
 _space_group_name_H-M_alt              'P 1'
 loop_
    _atom_site_type_symbol
    _atom_site_fract_x
    _atom_site_fract_y
    _atom_site_fract_z
H       0.10179989     0.07270911     0.33508836
H       0.38371194     0.05817304     0.79463294
H       0.97452088     0.01289462     0.79844928
H       0.28064991     0.35788215     0.18371649
H       0.18761467     0.34053218     0.20244116
H       0.35941421     0.28239799     0.94249125
H       0.39935753     0.42269399     0.33320441
H       0.11464214     0.43320827     0.78326258
H       0.52626943     0.48265209     0.79668109
H       0.33496398     0.17111387     0.17956041
H       0.21006032     0.14376074     0.19766239
H       0.22625029     0.14006786     0.94097844
H       0.15202646     0.19960866     0.92796334
H       0.42903584     0.10230299     0.34397614
H       0.42913355     0.38976772     0.79294303
H       0.47583432     0.96015585     0.79721377
H       0.14720051     0.21544022     0.18429487
H       0.17232028     0.32773474     0.94644382
H       0.26009492     0.36313374     0.92641815
H       0.06974026     0.38864253     0.33267895
H       0.07174106     0.10571167     0.79465590
H       0.02211526     0.53095053     0.78557524
H       0.36521765     0.26181244     0.19982984
H       0.34690048     0.18739787     0.92331645
H       0.89941182     0.92253373     0.66621709
H       0.61481426     0.93336976     0.21594195
H       0.02639041     0.98274624     0.20271836
H       0.83575583     0.67187177     0.81978030
H       0.71114684     0.64325324     0.80177170
H       0.72766610     0.63971500     0.05842097
H       0.65271548     0.69832264     0.07169982
H       0.60167192     0.57271300     0.66435870
H       0.88383887     0.55832261     0.20454696
H       0.47445393     0.51316563     0.20102046
H       0.68677148     0.83980476     0.79682113
H       0.77962549     0.85809260     0.81542610
H       0.56969473     0.88859830     0.66648059
H       0.57167734     0.60598420     0.20483443
H       0.52230870     0.03113106     0.21366566
H       0.86513908     0.76286636     0.79912101
H       0.85911961     0.78359099     0.05637981
H       0.84770145     0.68846370     0.07597057
H       0.92892616     0.60219234     0.65527697
H       0.92923541     0.88989151     0.20642646
H       0.97596209     0.46030183     0.20192132
H       0.64760279     0.71428467     0.81542955
H       0.67153536     0.82676017     0.05280082
H       0.75888668     0.86317027     0.07269156
C       0.15072294     0.15004254     0.56314492
C       0.09240813     0.09430735     0.56367952
C       0.07359042     0.05923539     0.43574838
C       0.41477768     0.04554056     0.69723433
C       0.00248757     0.02598712     0.69714968
C       0.01870351     0.00639328     0.43379499
C       0.23683411     0.32232664     0.14858106
C       0.35067372     0.34495051     0.56165760
C       0.40863767     0.40103888     0.56189185
C       0.42742327     0.43622100     0.43394839
C       0.08351840     0.44575128     0.68595105
C       0.49831146     0.46958292     0.69541600
C       0.48213739     0.48926926     0.43204639
C       0.19986352     0.19657265     0.14696050
C       0.20462713     0.19219209     0.97858269
C       0.34606578     0.14496979     0.56724694
C       0.40123194     0.08599255     0.56813893
C       0.43964586     0.07087478     0.44247891
C       0.44477883     0.41830790     0.69384563
C       0.46567871     0.99144994     0.69816635
C       0.49243337     0.01588838     0.44011618
C       0.22827271     0.32072462     0.97986714
C       0.15331289     0.34715127     0.55836458
C       0.09727710     0.40527924     0.55693334
C       0.05893521     0.42010306     0.43105954
C       0.05609444     0.07720951     0.69556554
C       0.03249260     0.49960632     0.68670943
C       0.00597655     0.47505186     0.42843701
C       0.32519349     0.22736799     0.14618138
C       0.32649550     0.23626362     0.97729778
C       0.85072543     0.84495386     0.43771210
C       0.90870856     0.90102052     0.43750861
C       0.92749479     0.93611613     0.56547547
C       0.58364957     0.94587381     0.31324936
C       0.99842145     0.96961781     0.30399410
C       0.98222454     0.98914475     0.56739241
C       0.70047066     0.69594628     0.85254147
C       0.70537800     0.69157254     0.02090168
C       0.65064680     0.65016131     0.43631732
C       0.59230937     0.59444907     0.43578241
C       0.57347466     0.55930276     0.56369968
C       0.91485152     0.54563245     0.30195454
C       0.50240810     0.52620003     0.30231234
C       0.51859528     0.50645001     0.56563814
C       0.73615528     0.82208934     0.85064345
C       0.65337860     0.84722144     0.44083384
C       0.59733803     0.90534234     0.44224975
C       0.55893333     0.92010058     0.56811253
C       0.55600979     0.57742596     0.30391049
C       0.53262690     0.99973558     0.31250819
C       0.50597129     0.97504298     0.57073936
C       0.82546630     0.72804867     0.85298295
C       0.82672111     0.73705248     0.02184940
C       0.84606182     0.64498170     0.43200471
C       0.90123040     0.58600888     0.43108740
C       0.93958113     0.57081692     0.55674797
C       0.94487024     0.91836300     0.30554665
C       0.96575305     0.49154012     0.30099781
C       0.99236599     0.51582820     0.55908961
C       0.72756881     0.82038603     0.01933370
N       0.25275362     0.24971137     0.92179152
N       0.25379378     0.24838632     0.20400358
N       0.75284470     0.74967168     0.07750168
N       0.75384648     0.74832553     0.79528518
O       0.33437871     0.17716081     0.44670222
O       0.16354252     0.18312130     0.68216598
O       0.16639329     0.31379670     0.43954366
O       0.33533999     0.31497352     0.68311867
O       0.32032244     0.33052429     0.44058830
O       0.31436759     0.15965203     0.68690024
O       0.18400038     0.16110223     0.44415270
O       0.18478587     0.33475728     0.67901146
O       0.66638246     0.81380630     0.55963637
O       0.83544457     0.81502430     0.31624235
O       0.83429034     0.67708488     0.55259384
O       0.66354336     0.68326590     0.31728999
O       0.68388171     0.66116802     0.55531438
O       0.68494020     0.83488428     0.32022967
O       0.82030846     0.83049638     0.55876702
O       0.81445355     0.65974051     0.31231545
Ni      0.25039841     0.24812392     0.69298368
Ni      0.25157292     0.24651121     0.43267670
Ni      0.75155336     0.74650285     0.56663973
Ni      0.75047691     0.74818521     0.30632926
