 # fodMC guess
  
 _chemical_name_common                  'DUT-8(Ni) closed, exp'
_cell_length_a                            6.94720000
_cell_length_b                            8.18050000
_cell_length_c                           12.17220000
_cell_angle_alpha                        91.1412
_cell_angle_beta                        103.8734
_cell_angle_gamma                       104.5498
 _space_group_name_H-M_alt              'P 1'
 loop_
    _atom_site_type_symbol
    _atom_site_fract_x
    _atom_site_fract_y
    _atom_site_fract_z
H       0.61507000     0.46737000     0.44673000
H       0.75100000     0.39772000     0.56997000
H       0.66483000     0.87740000     0.46248000
H       0.65299000     0.96365000     0.59726000
H       0.73760000     0.50712000     0.76056000
H       0.58028000     0.64193000     0.77319000
H       0.38532000     0.72873000     0.60109000
H       0.39092000     0.64847000     0.46409000
H       0.83895000     0.87897000     0.77249000
H       0.00435000     0.74559000     0.76511000
H       0.02773000     0.63654000     0.58063000
H       0.89127000     0.69527000     0.45288000
H       0.25839000     0.54557000     0.96500000
H       0.34348000     0.52563000     0.17188000
H       0.07633000     0.99888000     0.91626000
H       0.11747000     0.82504000     0.07822000
H       0.20436000     0.80281000     0.28431000
H       0.37773000     0.35142000     0.33749000
H       0.98477000     0.50021000     0.27564000
H       0.86906000     0.49066000     0.06767000
H       0.77052000     0.95600000     0.25526000
H       0.61249000     0.79302000     0.06621000
H       0.49599000     0.78357000     0.85826000
H       0.71327000     0.32742000     0.87841000
C       0.31907000     0.06666000     0.45665000
C       0.98597000     0.23076000     0.41202000
C       0.49610000     0.05281000     0.72187000
C       0.86069000     0.77285000     0.72099000
C       0.88479000     0.66915000     0.54150000
C       0.67578000     0.60825000     0.71950000
C       0.48476000     0.68838000     0.55285000
C       0.88347000     0.23020000     0.28517000
C       0.69460000     0.50680000     0.53767000
C       0.67234000     0.85001000     0.55213000
C       0.90907000     0.37886000     0.22773000
C       0.84467000     0.37279000     0.10766000
C       0.75552000     0.21714000     0.03955000
C       0.72651000     0.06647000     0.09429000
C       0.78878000     0.07389000     0.21563000
C       0.63710000     0.91084000     0.02621000
C       0.57242000     0.90478000     0.90616000
C       0.59870000     0.05332000     0.84868000
C       0.69377000     0.20963000     0.91817000
C       0.13810000     0.27766000     0.79281000
C       0.15539000     0.27419000     0.92075000
C       0.23226000     0.42127000     0.99717000
C       0.28431000     0.40927000     0.11619000
C       0.26807000     0.24956000     0.16286000
C       0.19169000     0.10115000     0.08868000
C       0.13299000     0.11485000     0.97003000
C       0.17614000     0.94100000     0.13437000
C       0.22887000     0.92768000     0.25278000
C       0.30335000     0.07393000     0.32959000
C       0.32484000     0.23526000     0.28189000
N       0.87650000     0.82610000     0.60548000
N       0.54790000     0.53974000     0.60270000
O       0.53677000     0.19302000     0.67477000
O       0.34580000     0.92674000     0.66815000
O       0.94486000     0.09158000     0.45967000
O       0.22852000     0.40947000     0.74845000
O       0.06876000     0.13274000     0.73368000
O       0.38823000     0.21050000     0.51618000
O       0.22757000     0.93391000     0.49996000
O       0.13563000     0.35642000     0.46590000
Ni      0.10565000     0.01741000     0.61757000
Ni      0.28701000     0.35476000     0.61443000
