 # fodMC guess
  
 _chemical_name_common                  'HKUST-1'
_cell_length_a                           18.59484000
_cell_length_b                           18.59490000
_cell_length_c                           18.59496000
_cell_angle_alpha                        59.9999
_cell_angle_beta                         60.0000
_cell_angle_gamma                        60.0003
 _space_group_name_H-M_alt              'P 1'
 loop_
    _atom_site_type_symbol
    _atom_site_fract_x
    _atom_site_fract_y
    _atom_site_fract_z
O       0.87441400     0.02050100     0.61372700
O       0.02050900     0.87441500     0.49135300
O       0.61372400     0.49135300     0.87441500
O       0.49135900     0.61372700     0.02050100
O       0.61372700     0.87441400     0.02050400
O       0.49135500     0.02050400     0.87441400
O       0.87441200     0.61372500     0.49135600
O       0.02050800     0.49135600     0.61372500
O       0.02050100     0.61372600     0.87441600
O       0.87441500     0.49135500     0.02050400
O       0.49135600     0.87441600     0.61372600
O       0.61372600     0.02050400     0.49135500
O       0.12558500     0.97949200     0.50864700
O       0.97949800     0.12558600     0.38627400
O       0.38627600     0.50864700     0.97949200
O       0.50864100     0.38627400     0.12558600
O       0.38627500     0.12558600     0.50864600
O       0.50864200     0.97949600     0.38627400
O       0.12558800     0.38627400     0.97949600
O       0.97949200     0.50864600     0.12558600
O       0.97949800     0.38627300     0.50864600
O       0.12558300     0.50864600     0.38627300
O       0.50864500     0.12558600     0.97949600
O       0.38627300     0.97949600     0.12558600
O       0.12558600     0.97949900     0.38627300
O       0.97949100     0.12558500     0.50864700
O       0.38627600     0.50864700     0.12558500
O       0.50864100     0.38627300     0.97949900
O       0.38627300     0.12558600     0.97949600
O       0.50864500     0.97949600     0.12558600
O       0.12558800     0.38627500     0.50864400
O       0.97949200     0.50864400     0.38627500
O       0.97949900     0.38627400     0.12558400
O       0.12558500     0.50864500     0.97949600
O       0.50864400     0.12558400     0.38627400
O       0.38627400     0.97949600     0.50864500
O       0.87441500     0.02050800     0.49135300
O       0.02050200     0.87441400     0.61372600
O       0.61372400     0.49135300     0.02050800
O       0.49135900     0.61372600     0.87441400
O       0.61372500     0.87441400     0.49135400
O       0.49135800     0.02050400     0.61372600
O       0.87441200     0.61372600     0.02050400
O       0.02050700     0.49135400     0.87441400
O       0.02050200     0.61372700     0.49135400
O       0.87441700     0.49135400     0.61372700
O       0.49135500     0.87441400     0.02050400
O       0.61372700     0.02050400     0.87441400
C       0.70015200     0.02970100     0.70015300
C       0.02970200     0.70015300     0.56999400
C       0.70015200     0.56999400     0.70015300
C       0.56999500     0.70015300     0.02970100
C       0.70015200     0.70015300     0.02970100
C       0.56999600     0.02970100     0.70015300
C       0.70015100     0.70015200     0.56999400
C       0.02970400     0.56999400     0.70015200
C       0.02970200     0.70015100     0.70015200
C       0.70015300     0.56999400     0.02970100
C       0.56999500     0.70015200     0.70015100
C       0.70015300     0.02970100     0.56999400
C       0.29984700     0.97029900     0.43000600
C       0.97029800     0.29984900     0.29984800
C       0.29984700     0.43000600     0.97029900
C       0.43000500     0.29984800     0.29984900
C       0.29984900     0.29984800     0.43000600
C       0.43000400     0.97029900     0.29984700
C       0.29984800     0.29984700     0.97029900
C       0.97029600     0.43000600     0.29984800
C       0.97029800     0.29984700     0.43000600
C       0.29984800     0.43000600     0.29984700
C       0.43000500     0.29984700     0.97029900
C       0.29984800     0.97029900     0.29984700
C       0.83774700     0.02383100     0.56920900
C       0.02383100     0.83774700     0.56920800
C       0.56921200     0.56920800     0.83774700
C       0.56921200     0.56920900     0.02383100
C       0.56921000     0.83774700     0.02383200
C       0.56921000     0.02383200     0.83774700
C       0.83774600     0.56920900     0.56921200
C       0.02383200     0.56921200     0.56920900
C       0.02383200     0.56921000     0.83774700
C       0.83774600     0.56920900     0.02383100
C       0.56921000     0.83774700     0.56921000
C       0.56921200     0.02383100     0.56920900
C       0.16225300     0.97616900     0.43079100
C       0.97616900     0.16225300     0.43079200
C       0.43078800     0.43079100     0.97616900
C       0.43078800     0.43079200     0.16225300
C       0.43079000     0.16225300     0.43079000
C       0.43078800     0.97616900     0.43079100
C       0.16225400     0.43079100     0.97616900
C       0.97616800     0.43079000     0.16225300
C       0.97616800     0.43078800     0.43079100
C       0.16225400     0.43079100     0.43078800
C       0.43079000     0.16225300     0.97616800
C       0.43079000     0.97616800     0.16225300
C       0.74340400     0.02963000     0.61348200
C       0.02963100     0.74340400     0.61348100
C       0.61348300     0.61348100     0.74340400
C       0.61348200     0.61348200     0.02963000
C       0.61348200     0.74340300     0.02963100
C       0.61348200     0.02963100     0.74340300
C       0.74340400     0.61348100     0.61348200
C       0.02963200     0.61348200     0.61348100
C       0.02963200     0.61348200     0.74340300
C       0.74340400     0.61348200     0.02963000
C       0.61348200     0.74340300     0.61348200
C       0.61348300     0.02963000     0.61348200
C       0.25659500     0.97037000     0.38651800
C       0.97036900     0.25659500     0.38651900
C       0.38651800     0.38651800     0.97037000
C       0.38651700     0.38651900     0.25659500
C       0.38651800     0.25659600     0.38651800
C       0.38651700     0.97037000     0.38651800
C       0.25659500     0.38651800     0.97037000
C       0.97036800     0.38651800     0.25659600
C       0.97036800     0.38651800     0.38651900
C       0.25659500     0.38651900     0.38651800
C       0.38651800     0.25659500     0.97036900
C       0.38651800     0.97036900     0.25659500
H       0.73461500     0.02808500     0.73461400
H       0.02808500     0.73461700     0.50268200
H       0.73461600     0.50268200     0.73461700
H       0.50268600     0.73461400     0.02808500
H       0.73461500     0.73461500     0.02808500
H       0.50268500     0.02808500     0.73461500
H       0.73461500     0.73461500     0.50268500
H       0.02808600     0.50268500     0.73461500
H       0.02808500     0.73461500     0.73461500
H       0.73461600     0.50268200     0.02808500
H       0.50268600     0.73461500     0.73461500
H       0.73461700     0.02808500     0.50268200
H       0.26538300     0.97191500     0.49731800
H       0.97191500     0.26538500     0.26538500
H       0.26538400     0.49731800     0.97191500
H       0.49731400     0.26538500     0.26538500
H       0.26538500     0.26538500     0.49731500
H       0.49731500     0.97191500     0.26538500
H       0.26538500     0.26538500     0.97191500
H       0.97191400     0.49731500     0.26538500
H       0.97191500     0.26538300     0.49731800
H       0.26538400     0.49731800     0.26538300
H       0.49731400     0.26538500     0.97191500
H       0.26538500     0.97191500     0.26538500
Cu      0.99999800     0.99999800     0.56519800
Cu      0.56519400     0.43480200     0.00000200
Cu      0.56519600     0.00000000     0.00000000
Cu      0.99999500     0.56519500     0.43480500
Cu      0.99999700     0.56519700     0.00000100
Cu      0.56519500     0.99999900     0.43480300
Cu      0.00000200     0.00000200     0.43480200
Cu      0.43480600     0.56519800     0.99999800
Cu      0.43480400     0.00000000     0.00000000
Cu      0.00000500     0.43480500     0.56519500
Cu      0.00000300     0.43480300     0.99999900
Cu      0.43480500     0.00000100     0.56519700
