 # fodMC guess
  
 _chemical_name_common                  'IRMOF-10'
_cell_length_a                           17.14700000
_cell_length_b                           23.32200000
_cell_length_c                           25.25500000
_cell_angle_alpha                        90.0000
_cell_angle_beta                         90.0000
_cell_angle_gamma                        90.0000
 _space_group_name_H-M_alt              'P 1'
 loop_
    _atom_site_type_symbol
    _atom_site_fract_x
    _atom_site_fract_y
    _atom_site_fract_z
Zn      0.83571499     0.84821203     0.93723999
O       0.68711699     0.28230902     0.39390200
O       0.78381093     0.23651501     0.43722000
O       0.72578299     0.96706968     0.06070089
O       0.80789596     0.91330070     0.10691000
C       0.74042095     0.20088299     0.35581101
C       0.79658197     0.16010599     0.35482099
H       0.83279903     0.15770500     0.38309198
C       0.80189001     0.12121602     0.31209701
H       0.84417093     0.09488890     0.31130497
C       0.74911098     0.12001501     0.27242099
C       0.69160798     0.16169299     0.27380697
H       0.65136799     0.16152101     0.24791099
C       0.69230798     0.20298401     0.31189899
H       0.65801598     0.23480002     0.30821600
C       0.75587595     0.07889551     0.22819200
C       0.71359398     0.08481258     0.18578499
H       0.67767003     0.11568502     0.18420099
C       0.71860996     0.04699430     0.14159600
H       0.69079098     0.05539829     0.10999798
C       0.76392401     0.99819917     0.14500099
C       0.79868199     0.98790846     0.19211998
H       0.82510095     0.95270569     0.19790101
C       0.79582393     0.02911410     0.23219196
H       0.82340899     0.02169630     0.26410600
C       0.73750499     0.24200300     0.39849499
C       0.76637295     0.95690760     0.10089099
O       0.94372188     0.84581108     0.95489998
C       0.10637400     0.82312799     0.96111657
H       0.07902257     0.80460497     0.93320131
C       0.18277197     0.82441502     0.95921592
H       0.20959900     0.80670599     0.93050873
O       0.94372188     0.84581108     0.04509998
O       0.59549799     0.90562602     0.00000000
O       0.59549799     0.90562602     0.99999996
O       0.59590599     0.80790700     0.00000000
O       0.59590599     0.80790700     0.99999996
C       0.97358127     0.84341008     0.00000000
C       0.97358127     0.84341008     0.99999996
C       0.06549251     0.84662602     0.00000000
C       0.06549251     0.84662602     0.99999996
C       0.10899901     0.87162297     0.04078400
H       0.08287158     0.88821696     0.07020388
C       0.18498898     0.87239503     0.03868541
H       0.21239902     0.88898902     0.06759062
C       0.22517099     0.85219998     0.00000000
C       0.22517099     0.85219998     0.99999996
C       0.31177500     0.85708807     0.00000000
C       0.31177500     0.85708807     0.99999996
C       0.35289001     0.80872104     0.00000000
C       0.35289001     0.80872104     0.99999996
H       0.32612101     0.77300403     0.00000000
H       0.32612101     0.77300403     0.99999996
C       0.43686901     0.80889306     0.00000000
C       0.43686901     0.80889306     0.99999996
H       0.46451298     0.77351899     0.00000000
H       0.46451298     0.77351899     0.99999996
C       0.47617700     0.85798799     0.00000000
C       0.47617700     0.85798799     0.99999996
C       0.43232099     0.90639696     0.00000000
C       0.43232099     0.90639696     0.99999996
H       0.45821403     0.94241506     0.00000000
H       0.45821403     0.94241506     0.99999996
C       0.35172298     0.90601098     0.00000000
C       0.35172298     0.90601098     0.99999996
H       0.32419700     0.94142908     0.00000000
H       0.32419700     0.94142908     0.99999996
C       0.56149799     0.85648697     0.00000000
C       0.56149799     0.85648697     0.99999996
Zn      0.66431393     0.34821199     0.56278000
O       0.81291194     0.78230898     0.10611800
O       0.71621899     0.73651496     0.06279941
O       0.77418796     0.46707002     0.43927895
O       0.69207395     0.41330100     0.39311000
C       0.75960798     0.70092599     0.14420899
C       0.70338794     0.66010604     0.14519901
H       0.66717198     0.65770504     0.11688798
C       0.69808101     0.62121602     0.18788398
H       0.65579997     0.59488903     0.18871499
C       0.75091894     0.62001505     0.22759798
C       0.80842101     0.66169299     0.22621299
H       0.84860296     0.66152105     0.25210802
C       0.80772100     0.70302701     0.18812101
H       0.84201301     0.73479997     0.19180400
C       0.74409500     0.57889499     0.27178800
C       0.78637698     0.58481301     0.31419501
H       0.82230099     0.61568502     0.31581897
C       0.78141897     0.54699395     0.35838400
H       0.80917898     0.55539799     0.39002198
C       0.73610497     0.49819900     0.35501897
C       0.70128897     0.48790803     0.30789899
H       0.67487001     0.45270603     0.30211800
C       0.70420499     0.52911401     0.26778899
H       0.67661999     0.52169600     0.23591400
C       0.76252400     0.74200304     0.10148501
C       0.73359795     0.45690803     0.39908901
O       0.55630699     0.34581099     0.54511998
C       0.39097201     0.37162302     0.54080404
H       0.41709897     0.38821701     0.57022400
C       0.31498198     0.37239503     0.53870497
H       0.28757200     0.38898898     0.56761002
O       0.55630699     0.34581099     0.45491998
O       0.90447309     0.40558301     0.50002000
O       0.90412311     0.30790700     0.50002000
C       0.52638893     0.34340996     0.50002000
C       0.43447798     0.34658301     0.50002000
C       0.39359701     0.32308503     0.46109697
H       0.42100700     0.30460501     0.43322099
C       0.31719799     0.32441502     0.45919596
H       0.29037103     0.30670603     0.43048901
C       0.27480002     0.35219998     0.50002000
C       0.18819601     0.35708803     0.50002000
C       0.14708101     0.30872099     0.50002000
H       0.17390797     0.27300399     0.50002000
C       0.06310142     0.30889298     0.50002000
H       0.03551642     0.27351904     0.50002000
C       0.02379419     0.35798799     0.50002000
C       0.06770858     0.40639701     0.50002000
H       0.04181489     0.44241502     0.50002000
C       0.14830600     0.40601098     0.50002000
H       0.17577401     0.44138599     0.50002000
C       0.93847314     0.35648705     0.50002000
Zn      0.70805400     0.91810304     0.00000000
Zn      0.70805400     0.91810304     0.99999996
Zn      0.70198892     0.78200802     0.00000000
Zn      0.70198892     0.78200802     0.99999996
Zn      0.83571499     0.84821203     0.06279941
O       0.76952196     0.84881202     0.00000000
O       0.76952196     0.84881202     0.99999996
O       0.68711699     0.28230902     0.60609796
O       0.78381093     0.23651501     0.56281897
O       0.72578299     0.96706968     0.93929891
O       0.80789596     0.91330070     0.89308996
C       0.74042095     0.20088299     0.64418899
C       0.79658197     0.16010599     0.64521901
H       0.83279903     0.15770500     0.61690798
C       0.80189001     0.12121602     0.68790299
H       0.84417093     0.09488890     0.68869499
C       0.74911098     0.12001501     0.72761798
C       0.69160798     0.16169299     0.72619299
H       0.65136799     0.16152101     0.75208897
C       0.69230798     0.20298401     0.68810101
H       0.65801598     0.23480002     0.69182297
C       0.75587595     0.07889551     0.77180804
C       0.71359398     0.08481258     0.81421501
H       0.67767003     0.11568502     0.81579897
C       0.71860996     0.04699430     0.85840392
H       0.69079098     0.05539829     0.89000194
C       0.76392401     0.99819917     0.85499897
C       0.79868199     0.98790846     0.80791899
H       0.82510095     0.95270569     0.80209899
C       0.79582393     0.02911410     0.76780800
H       0.82340899     0.02169630     0.73589400
C       0.73750499     0.24200300     0.60150497
C       0.76637295     0.95690760     0.89910897
Zn      0.79191695     0.41810299     0.50002000
Zn      0.79803989     0.28200802     0.50002000
Zn      0.66431393     0.34821199     0.43722000
O       0.73050697     0.34881202     0.50002000
O       0.81291194     0.78230898     0.89392192
O       0.71621899     0.73651496     0.93720095
O       0.77418796     0.46707002     0.56072097
O       0.69207395     0.41330100     0.60689000
C       0.75960798     0.70092599     0.85579097
C       0.70338794     0.66010604     0.85480099
H       0.66717198     0.65770504     0.88311202
C       0.69808101     0.62121602     0.81211598
H       0.65579997     0.59488903     0.81132394
C       0.75091894     0.62001505     0.77240194
C       0.80842101     0.66169299     0.77378697
H       0.84860296     0.66152105     0.74789198
C       0.80772100     0.70302701     0.81191804
H       0.84201301     0.73479997     0.80819600
C       0.74409500     0.57889499     0.72821196
C       0.78637698     0.58481301     0.68580499
H       0.82230099     0.61568502     0.68422099
C       0.78141897     0.54699395     0.64161600
H       0.80917898     0.55539799     0.61001802
C       0.73610497     0.49819900     0.64502099
C       0.70128897     0.48790803     0.69210097
H       0.67487001     0.45270603     0.69792097
C       0.70420499     0.52911401     0.73221093
H       0.67661999     0.52169600     0.76408596
C       0.76252400     0.74200304     0.89851499
C       0.73359795     0.45690803     0.60091099
