 # fodMC guess
  
 _chemical_name_common                  'MOF-5'
_cell_length_a                           25.86584000
_cell_length_b                           25.86584000
_cell_length_c                           25.86584000
_cell_angle_alpha                        90.0000
_cell_angle_beta                         90.0000
_cell_angle_gamma                        90.0000
 _space_group_name_H-M_alt              'P 1'
 loop_
    _atom_site_type_symbol
    _atom_site_fract_x
    _atom_site_fract_y
    _atom_site_fract_z
Zn      0.29336700     0.29336700     0.20663303
Zn      0.70663303     0.70663303     0.79336704
Zn      0.70663303     0.70663303     0.20663303
Zn      0.29336700     0.29336700     0.79336704
Zn      0.70663303     0.29336700     0.79336704
Zn      0.29336700     0.70663303     0.20663303
Zn      0.29336700     0.70663303     0.79336704
Zn      0.70663303     0.29336700     0.20663303
Zn      0.20663303     0.29336700     0.29336700
Zn      0.79336704     0.70663303     0.70663303
Zn      0.20663303     0.70663303     0.70663303
Zn      0.79336704     0.29336700     0.29336700
Zn      0.79336704     0.70663303     0.29336700
Zn      0.20663303     0.29336700     0.70663303
Zn      0.79336704     0.29336700     0.70663303
Zn      0.20663303     0.70663303     0.29336700
Zn      0.29336700     0.20663303     0.29336700
Zn      0.70663303     0.79336704     0.70663303
Zn      0.70663303     0.20663303     0.70663303
Zn      0.29336700     0.79336704     0.29336700
Zn      0.29336700     0.79336704     0.70663303
Zn      0.70663303     0.20663303     0.29336700
Zn      0.70663303     0.79336704     0.29336700
Zn      0.29336700     0.20663303     0.70663303
Zn      0.20663303     0.79336704     0.79336704
Zn      0.79336704     0.20663303     0.20663303
Zn      0.20663303     0.20663303     0.20663303
Zn      0.79336704     0.79336704     0.79336704
Zn      0.79336704     0.20663303     0.79336704
Zn      0.20663303     0.79336704     0.20663303
Zn      0.79336704     0.79336704     0.20663303
Zn      0.20663303     0.20663303     0.79336704
O       0.25000000     0.25000000     0.25000000
O       0.75000000     0.75000000     0.75000000
O       0.75000000     0.75000000     0.25000000
O       0.25000000     0.25000000     0.75000000
O       0.75000000     0.25000000     0.75000000
O       0.25000000     0.75000000     0.25000000
O       0.25000000     0.75000000     0.75000000
O       0.75000000     0.25000000     0.25000000
O       0.28104202     0.36634801     0.21895802
O       0.71895809     0.63365195     0.78104198
O       0.71895809     0.63365195     0.21895802
O       0.28104202     0.36634801     0.78104198
O       0.71895809     0.36634801     0.78104198
O       0.28104202     0.63365195     0.21895802
O       0.28104202     0.63365195     0.78104198
O       0.71895809     0.36634801     0.21895802
O       0.21895802     0.28104202     0.36634801
O       0.78104198     0.71895809     0.63365195
O       0.21895802     0.71895809     0.63365195
O       0.78104198     0.28104202     0.36634801
O       0.78104198     0.71895809     0.36634801
O       0.21895802     0.28104202     0.63365195
O       0.78104198     0.28104202     0.63365195
O       0.21895802     0.71895809     0.36634801
O       0.36634801     0.21895802     0.28104202
O       0.63365195     0.78104198     0.71895809
O       0.63365195     0.21895802     0.71895809
O       0.36634801     0.78104198     0.28104202
O       0.36634801     0.78104198     0.71895809
O       0.63365195     0.21895802     0.28104202
O       0.63365195     0.78104198     0.28104202
O       0.36634801     0.21895802     0.71895809
O       0.36634801     0.28104202     0.78104198
O       0.63365195     0.71895809     0.21895802
O       0.63365195     0.71895809     0.78104198
O       0.36634801     0.28104202     0.21895802
O       0.36634801     0.71895809     0.21895802
O       0.63365195     0.28104202     0.78104198
O       0.63365195     0.28104202     0.21895802
O       0.36634801     0.71895809     0.78104198
O       0.28104202     0.21895802     0.63365195
O       0.71895809     0.78104198     0.36634801
O       0.71895809     0.21895802     0.36634801
O       0.28104202     0.78104198     0.63365195
O       0.71895809     0.78104198     0.63365195
O       0.28104202     0.21895802     0.36634801
O       0.28104202     0.78104198     0.36634801
O       0.71895809     0.21895802     0.63365195
O       0.21895802     0.36634801     0.71895809
O       0.78104198     0.63365195     0.28104202
O       0.21895802     0.63365195     0.28104202
O       0.78104198     0.36634801     0.71895809
O       0.78104198     0.36634801     0.28104202
O       0.21895802     0.63365195     0.71895809
O       0.78104198     0.63365195     0.71895809
O       0.21895802     0.36634801     0.28104202
O       0.28104202     0.86634809     0.71895809
O       0.71895809     0.13365199     0.28104202
O       0.71895809     0.13365199     0.71895809
O       0.28104202     0.86634809     0.28104202
O       0.71895809     0.86634809     0.28104202
O       0.28104202     0.13365199     0.71895809
O       0.28104202     0.13365199     0.28104202
O       0.71895809     0.86634809     0.71895809
O       0.21895802     0.78104198     0.86634809
O       0.78104198     0.21895802     0.13365199
O       0.21895802     0.21895802     0.13365199
O       0.78104198     0.78104198     0.86634809
O       0.78104198     0.21895802     0.86634809
O       0.21895802     0.78104198     0.13365199
O       0.78104198     0.78104198     0.13365199
O       0.21895802     0.21895802     0.86634809
O       0.28104202     0.71895809     0.13365199
O       0.71895809     0.28104202     0.86634809
O       0.71895809     0.71895809     0.86634809
O       0.28104202     0.28104202     0.13365199
O       0.71895809     0.28104202     0.13365199
O       0.28104202     0.71895809     0.86634809
O       0.28104202     0.28104202     0.86634809
O       0.71895809     0.71895809     0.13365199
O       0.21895802     0.86634809     0.21895802
O       0.78104198     0.13365199     0.78104198
O       0.21895802     0.13365199     0.78104198
O       0.78104198     0.86634809     0.21895802
O       0.78104198     0.86634809     0.78104198
O       0.21895802     0.13365199     0.21895802
O       0.78104198     0.13365199     0.21895802
O       0.21895802     0.86634809     0.78104198
O       0.86634809     0.21895802     0.78104198
O       0.13365199     0.78104198     0.21895802
O       0.13365199     0.21895802     0.21895802
O       0.86634809     0.78104198     0.78104198
O       0.86634809     0.78104198     0.21895802
O       0.13365199     0.21895802     0.78104198
O       0.13365199     0.78104198     0.78104198
O       0.86634809     0.21895802     0.21895802
O       0.86634809     0.28104202     0.28104202
O       0.13365199     0.71895809     0.71895809
O       0.13365199     0.71895809     0.28104202
O       0.86634809     0.28104202     0.71895809
O       0.86634809     0.71895809     0.71895809
O       0.13365199     0.28104202     0.28104202
O       0.13365199     0.28104202     0.71895809
O       0.86634809     0.71895809     0.28104202
C       0.25000000     0.38861703     0.25000000
C       0.75000000     0.61138304     0.75000000
C       0.75000000     0.61138304     0.25000000
C       0.25000000     0.38861703     0.75000000
C       0.75000000     0.38861703     0.75000000
C       0.25000000     0.61138304     0.25000000
C       0.25000000     0.61138304     0.75000000
C       0.75000000     0.38861703     0.25000000
C       0.25000000     0.25000000     0.38861703
C       0.75000000     0.75000000     0.61138304
C       0.25000000     0.75000000     0.61138304
C       0.75000000     0.25000000     0.38861703
C       0.75000000     0.75000000     0.38861703
C       0.25000000     0.25000000     0.61138304
C       0.75000000     0.25000000     0.61138304
C       0.25000000     0.75000000     0.38861703
C       0.38861703     0.25000000     0.25000000
C       0.61138304     0.75000000     0.75000000
C       0.61138304     0.25000000     0.75000000
C       0.38861703     0.75000000     0.25000000
C       0.38861703     0.75000000     0.75000000
C       0.61138304     0.25000000     0.25000000
C       0.61138304     0.75000000     0.25000000
C       0.38861703     0.25000000     0.75000000
C       0.25000000     0.88861699     0.75000000
C       0.75000000     0.11138301     0.25000000
C       0.75000000     0.11138301     0.75000000
C       0.25000000     0.88861699     0.25000000
C       0.75000000     0.88861699     0.25000000
C       0.25000000     0.11138301     0.75000000
C       0.25000000     0.11138301     0.25000000
C       0.75000000     0.88861699     0.75000000
C       0.25000000     0.75000000     0.88861699
C       0.75000000     0.25000000     0.11138301
C       0.25000000     0.25000000     0.11138301
C       0.75000000     0.75000000     0.88861699
C       0.75000000     0.25000000     0.88861699
C       0.25000000     0.75000000     0.11138301
C       0.75000000     0.75000000     0.11138301
C       0.25000000     0.25000000     0.88861699
C       0.88861699     0.25000000     0.75000000
C       0.11138301     0.75000000     0.25000000
C       0.11138301     0.25000000     0.25000000
C       0.88861699     0.75000000     0.75000000
C       0.88861699     0.75000000     0.25000000
C       0.11138301     0.25000000     0.75000000
C       0.11138301     0.75000000     0.75000000
C       0.88861699     0.25000000     0.25000000
C       0.25000000     0.44619200     0.25000000
C       0.75000000     0.55380800     0.75000000
C       0.75000000     0.55380800     0.25000000
C       0.25000000     0.44619200     0.75000000
C       0.75000000     0.44619200     0.75000000
C       0.25000000     0.55380800     0.25000000
C       0.25000000     0.55380800     0.75000000
C       0.75000000     0.44619200     0.25000000
C       0.25000000     0.25000000     0.44619200
C       0.75000000     0.75000000     0.55380800
C       0.25000000     0.75000000     0.55380800
C       0.75000000     0.25000000     0.44619200
C       0.75000000     0.75000000     0.44619200
C       0.25000000     0.25000000     0.55380800
C       0.75000000     0.25000000     0.55380800
C       0.25000000     0.75000000     0.44619200
C       0.44619200     0.25000000     0.25000000
C       0.55380800     0.75000000     0.75000000
C       0.55380800     0.25000000     0.75000000
C       0.44619200     0.75000000     0.25000000
C       0.44619200     0.75000000     0.75000000
C       0.55380800     0.25000000     0.25000000
C       0.55380800     0.75000000     0.25000000
C       0.44619200     0.25000000     0.75000000
C       0.25000000     0.94619204     0.75000000
C       0.75000000     0.05380800     0.25000000
C       0.75000000     0.05380800     0.75000000
C       0.25000000     0.94619204     0.25000000
C       0.75000000     0.94619204     0.25000000
C       0.25000000     0.05380800     0.75000000
C       0.25000000     0.05380800     0.25000000
C       0.75000000     0.94619204     0.75000000
C       0.25000000     0.75000000     0.94619204
C       0.75000000     0.25000000     0.05380800
C       0.25000000     0.25000000     0.05380800
C       0.75000000     0.75000000     0.94619204
C       0.75000000     0.25000000     0.94619204
C       0.25000000     0.75000000     0.05380800
C       0.75000000     0.75000000     0.05380800
C       0.25000000     0.25000000     0.94619204
C       0.94619204     0.25000000     0.75000000
C       0.05380800     0.75000000     0.25000000
C       0.05380800     0.25000000     0.25000000
C       0.94619204     0.75000000     0.75000000
C       0.94619204     0.75000000     0.25000000
C       0.05380800     0.25000000     0.75000000
C       0.05380800     0.75000000     0.75000000
C       0.94619204     0.25000000     0.25000000
C       0.28316703     0.47317903     0.21683301
C       0.71683305     0.52682105     0.78316703
C       0.71683305     0.52682105     0.21683301
C       0.28316703     0.47317903     0.78316703
C       0.71683305     0.47317903     0.78316703
C       0.28316703     0.52682105     0.21683301
C       0.28316703     0.52682105     0.78316703
C       0.71683305     0.47317903     0.21683301
C       0.21683301     0.28316703     0.47317903
C       0.78316703     0.71683305     0.52682105
C       0.21683301     0.71683305     0.52682105
C       0.78316703     0.28316703     0.47317903
C       0.78316703     0.71683305     0.47317903
C       0.21683301     0.28316703     0.52682105
C       0.78316703     0.28316703     0.52682105
C       0.21683301     0.71683305     0.47317903
C       0.47317903     0.21683301     0.28316703
C       0.52682105     0.78316703     0.71683305
C       0.52682105     0.21683301     0.71683305
C       0.47317903     0.78316703     0.28316703
C       0.47317903     0.78316703     0.71683305
C       0.52682105     0.21683301     0.28316703
C       0.52682105     0.78316703     0.28316703
C       0.47317903     0.21683301     0.71683305
C       0.47317903     0.28316703     0.78316703
C       0.52682105     0.71683305     0.21683301
C       0.52682105     0.71683305     0.78316703
C       0.47317903     0.28316703     0.21683301
C       0.47317903     0.71683305     0.21683301
C       0.52682105     0.28316703     0.78316703
C       0.52682105     0.28316703     0.21683301
C       0.47317903     0.71683305     0.78316703
C       0.28316703     0.21683301     0.52682105
C       0.71683305     0.78316703     0.47317903
C       0.71683305     0.21683301     0.47317903
C       0.28316703     0.78316703     0.52682105
C       0.71683305     0.78316703     0.52682105
C       0.28316703     0.21683301     0.47317903
C       0.28316703     0.78316703     0.47317903
C       0.71683305     0.21683301     0.52682105
C       0.21683301     0.47317903     0.71683305
C       0.78316703     0.52682105     0.28316703
C       0.21683301     0.52682105     0.28316703
C       0.78316703     0.47317903     0.71683305
C       0.78316703     0.47317903     0.28316703
C       0.21683301     0.52682105     0.71683305
C       0.78316703     0.52682105     0.71683305
C       0.21683301     0.47317903     0.28316703
C       0.28316703     0.97317899     0.71683305
C       0.71683305     0.02682101     0.28316703
C       0.71683305     0.02682101     0.71683305
C       0.28316703     0.97317899     0.28316703
C       0.71683305     0.97317899     0.28316703
C       0.28316703     0.02682101     0.71683305
C       0.28316703     0.02682101     0.28316703
C       0.71683305     0.97317899     0.71683305
C       0.21683301     0.78316703     0.97317899
C       0.78316703     0.21683301     0.02682101
C       0.21683301     0.21683301     0.02682101
C       0.78316703     0.78316703     0.97317899
C       0.78316703     0.21683301     0.97317899
C       0.21683301     0.78316703     0.02682101
C       0.78316703     0.78316703     0.02682101
C       0.21683301     0.21683301     0.97317899
C       0.28316703     0.71683305     0.02682101
C       0.71683305     0.28316703     0.97317899
C       0.71683305     0.71683305     0.97317899
C       0.28316703     0.28316703     0.02682101
C       0.71683305     0.28316703     0.02682101
C       0.28316703     0.71683305     0.97317899
C       0.28316703     0.28316703     0.97317899
C       0.71683305     0.71683305     0.02682101
C       0.21683301     0.97317899     0.21683301
C       0.78316703     0.02682101     0.78316703
C       0.21683301     0.02682101     0.78316703
C       0.78316703     0.97317899     0.21683301
C       0.78316703     0.97317899     0.78316703
C       0.21683301     0.02682101     0.21683301
C       0.78316703     0.02682101     0.21683301
C       0.21683301     0.97317899     0.78316703
C       0.97317899     0.21683301     0.78316703
C       0.02682101     0.78316703     0.21683301
C       0.02682101     0.21683301     0.21683301
C       0.97317899     0.78316703     0.78316703
C       0.97317899     0.78316703     0.21683301
C       0.02682101     0.21683301     0.78316703
C       0.02682101     0.78316703     0.78316703
C       0.97317899     0.21683301     0.21683301
C       0.97317899     0.28316703     0.28316703
C       0.02682101     0.71683305     0.71683305
C       0.02682101     0.71683305     0.28316703
C       0.97317899     0.28316703     0.71683305
C       0.97317899     0.71683305     0.71683305
C       0.02682101     0.28316703     0.28316703
C       0.02682101     0.28316703     0.71683305
C       0.97317899     0.71683305     0.28316703
H       0.30869003     0.45118999     0.19131001
H       0.69130997     0.54881005     0.80869007
H       0.69130997     0.54881005     0.19131001
H       0.30869003     0.45118999     0.80869007
H       0.69130997     0.45118999     0.80869007
H       0.30869003     0.54881005     0.19131001
H       0.30869003     0.54881005     0.80869007
H       0.69130997     0.45118999     0.19131001
H       0.19131001     0.30869003     0.45118999
H       0.80869007     0.69130997     0.54881005
H       0.19131001     0.69130997     0.54881005
H       0.80869007     0.30869003     0.45118999
H       0.80869007     0.69130997     0.45118999
H       0.19131001     0.30869003     0.54881005
H       0.80869007     0.30869003     0.54881005
H       0.19131001     0.69130997     0.45118999
H       0.45118999     0.19131001     0.30869003
H       0.54881005     0.80869007     0.69130997
H       0.54881005     0.19131001     0.69130997
H       0.45118999     0.80869007     0.30869003
H       0.45118999     0.80869007     0.69130997
H       0.54881005     0.19131001     0.30869003
H       0.54881005     0.80869007     0.30869003
H       0.45118999     0.19131001     0.69130997
H       0.45118999     0.30869003     0.80869007
H       0.54881005     0.69130997     0.19131001
H       0.54881005     0.69130997     0.80869007
H       0.45118999     0.30869003     0.19131001
H       0.45118999     0.69130997     0.19131001
H       0.54881005     0.30869003     0.80869007
H       0.54881005     0.30869003     0.19131001
H       0.45118999     0.69130997     0.80869007
H       0.30869003     0.19131001     0.54881005
H       0.69130997     0.80869007     0.45118999
H       0.69130997     0.19131001     0.45118999
H       0.30869003     0.80869007     0.54881005
H       0.69130997     0.80869007     0.54881005
H       0.30869003     0.19131001     0.45118999
H       0.30869003     0.80869007     0.45118999
H       0.69130997     0.19131001     0.54881005
H       0.19131001     0.45118999     0.69130997
H       0.80869007     0.54881005     0.30869003
H       0.19131001     0.54881005     0.30869003
H       0.80869007     0.45118999     0.69130997
H       0.80869007     0.45118999     0.30869003
H       0.19131001     0.54881005     0.69130997
H       0.80869007     0.54881005     0.69130997
H       0.19131001     0.45118999     0.30869003
H       0.30869003     0.95119003     0.69130997
H       0.69130997     0.04881001     0.30869003
H       0.69130997     0.04881001     0.69130997
H       0.30869003     0.95119003     0.30869003
H       0.69130997     0.95119003     0.30869003
H       0.30869003     0.04881001     0.69130997
H       0.30869003     0.04881001     0.30869003
H       0.69130997     0.95119003     0.69130997
H       0.19131001     0.80869007     0.95119003
H       0.80869007     0.19131001     0.04881001
H       0.19131001     0.19131001     0.04881001
H       0.80869007     0.80869007     0.95119003
H       0.80869007     0.19131001     0.95119003
H       0.19131001     0.80869007     0.04881001
H       0.80869007     0.80869007     0.04881001
H       0.19131001     0.19131001     0.95119003
H       0.30869003     0.69130997     0.04881001
H       0.69130997     0.30869003     0.95119003
H       0.69130997     0.69130997     0.95119003
H       0.30869003     0.30869003     0.04881001
H       0.69130997     0.30869003     0.04881001
H       0.30869003     0.69130997     0.95119003
H       0.30869003     0.30869003     0.95119003
H       0.69130997     0.69130997     0.04881001
H       0.19131001     0.95119003     0.19131001
H       0.80869007     0.04881001     0.80869007
H       0.19131001     0.04881001     0.80869007
H       0.80869007     0.95119003     0.19131001
H       0.80869007     0.95119003     0.80869007
H       0.19131001     0.04881001     0.19131001
H       0.80869007     0.04881001     0.19131001
H       0.19131001     0.95119003     0.80869007
H       0.95119003     0.19131001     0.80869007
H       0.04881001     0.80869007     0.19131001
H       0.04881001     0.19131001     0.19131001
H       0.95119003     0.80869007     0.80869007
H       0.95119003     0.80869007     0.19131001
H       0.04881001     0.19131001     0.80869007
H       0.04881001     0.80869007     0.80869007
H       0.95119003     0.19131001     0.19131001
H       0.95119003     0.30869003     0.30869003
H       0.04881001     0.69130997     0.69130997
H       0.04881001     0.69130997     0.30869003
H       0.95119003     0.30869003     0.69130997
H       0.95119003     0.69130997     0.69130997
H       0.04881001     0.30869003     0.30869003
H       0.04881001     0.30869003     0.69130997
H       0.95119003     0.69130997     0.30869003
