 # fodMC guess
  
 _chemical_name_common                  'UiO-67'
_cell_length_a                           19.15849255
_cell_length_b                           19.15849255
_cell_length_c                           19.15849255
_cell_angle_alpha                        60.0000
_cell_angle_beta                         60.0000
_cell_angle_gamma                        60.0000
 _space_group_name_H-M_alt              'P 1'
 loop_
    _atom_site_type_symbol
    _atom_site_fract_x
    _atom_site_fract_y
    _atom_site_fract_z
H       0.90677000     0.53299000     0.43747000
H       0.90600000     0.66220000     0.30830000
H       0.86200000     0.07640000     0.48090000
H       0.86610000     0.07990000     0.34790000
H       0.07990000     0.86610000     0.70610000
H       0.34790000     0.70610000     0.86610000
H       0.70610000     0.34790000     0.07990000
H       0.34790000     0.07990000     0.70610000
H       0.70610000     0.07990000     0.86610000
H       0.07990000     0.34790000     0.86610000
H       0.34790000     0.86610000     0.07990000
H       0.70610000     0.86610000     0.34790000
H       0.07990000     0.70610000     0.34790000
H       0.86610000     0.70610000     0.07990000
H       0.86610000     0.34790000     0.70610000
H       0.07640000     0.86200000     0.58070000
H       0.48090000     0.58070000     0.86200000
H       0.58070000     0.48090000     0.07640000
H       0.48090000     0.07640000     0.58070000
H       0.58070000     0.07640000     0.86200000
H       0.07640000     0.48090000     0.86200000
H       0.48090000     0.86200000     0.07640000
H       0.58070000     0.86200000     0.48090000
H       0.07640000     0.58070000     0.48090000
H       0.86200000     0.58070000     0.07640000
H       0.86200000     0.48090000     0.58070000
H       0.66220000     0.90600000     0.12350000
H       0.30830000     0.12350000     0.90600000
H       0.12350000     0.30830000     0.66220000
H       0.30830000     0.66220000     0.12350000
H       0.12350000     0.66220000     0.90600000
H       0.66220000     0.30830000     0.90600000
H       0.30830000     0.90600000     0.66220000
H       0.12350000     0.90600000     0.30830000
H       0.66220000     0.12350000     0.30830000
H       0.90600000     0.12350000     0.66220000
H       0.90600000     0.30830000     0.12350000
H       0.53299000     0.90677000     0.12277000
H       0.43747000     0.12277000     0.90677000
H       0.12277000     0.43747000     0.53299000
H       0.43747000     0.53299000     0.12277000
H       0.12277000     0.53299000     0.90677000
H       0.53299000     0.43747000     0.90677000
H       0.43747000     0.90677000     0.53299000
H       0.12277000     0.90677000     0.43747000
H       0.53299000     0.12277000     0.43747000
H       0.90677000     0.12277000     0.53299000
H       0.90677000     0.43747000     0.12277000
H       0.07260000     0.07260000     0.78220000
H       0.07260000     0.78220000     0.07260000
H       0.07260000     0.07260000     0.07260000
H       0.78220000     0.07260000     0.07260000
C       0.94327000     0.57157000     0.41957000
C       0.94330000     0.64360000     0.34640000
C       0.99232000     0.99172000     0.46924000
C       0.99500000     0.99330000     0.31970000
C       0.99737000     0.99577000     0.23929000
C       0.92023000     0.04033000     0.44251000
C       0.92173000     0.04193000     0.36843000
C       0.04193000     0.92173000     0.66791000
C       0.36843000     0.66791000     0.92173000
C       0.66791000     0.36843000     0.04193000
C       0.36843000     0.04193000     0.66791000
C       0.66791000     0.04193000     0.92173000
C       0.04193000     0.36843000     0.92173000
C       0.36843000     0.92173000     0.04193000
C       0.66791000     0.92173000     0.36843000
C       0.04193000     0.66791000     0.36843000
C       0.92173000     0.66791000     0.04193000
C       0.92173000     0.36843000     0.66791000
C       0.04033000     0.92023000     0.59693000
C       0.44251000     0.59693000     0.92023000
C       0.59693000     0.44251000     0.04033000
C       0.44251000     0.04033000     0.59693000
C       0.59693000     0.04033000     0.92023000
C       0.04033000     0.44251000     0.92023000
C       0.44251000     0.92023000     0.04033000
C       0.59693000     0.92023000     0.44251000
C       0.04033000     0.59693000     0.44251000
C       0.92023000     0.59693000     0.04033000
C       0.92023000     0.44251000     0.59693000
C       0.99577000     0.99737000     0.76757000
C       0.23929000     0.76757000     0.99737000
C       0.76757000     0.23929000     0.99577000
C       0.23929000     0.99577000     0.76757000
C       0.76757000     0.99577000     0.99737000
C       0.99577000     0.23929000     0.99737000
C       0.23929000     0.99737000     0.99577000
C       0.76757000     0.99737000     0.23929000
C       0.99577000     0.76757000     0.23929000
C       0.99737000     0.76757000     0.99577000
C       0.99737000     0.23929000     0.76757000
C       0.99330000     0.99500000     0.69200000
C       0.31970000     0.69200000     0.99500000
C       0.69200000     0.31970000     0.99330000
C       0.31970000     0.99330000     0.69200000
C       0.69200000     0.99330000     0.99500000
C       0.99330000     0.31970000     0.99500000
C       0.31970000     0.99500000     0.99330000
C       0.69200000     0.99500000     0.31970000
C       0.99330000     0.69200000     0.31970000
C       0.99500000     0.69200000     0.99330000
C       0.99500000     0.31970000     0.69200000
C       0.99172000     0.99232000     0.54672000
C       0.46924000     0.54672000     0.99232000
C       0.54672000     0.46924000     0.99172000
C       0.46924000     0.99172000     0.54672000
C       0.54672000     0.99172000     0.99232000
C       0.99172000     0.46924000     0.99232000
C       0.46924000     0.99232000     0.99172000
C       0.54672000     0.99232000     0.46924000
C       0.99172000     0.54672000     0.46924000
C       0.99232000     0.54672000     0.99172000
C       0.99232000     0.46924000     0.54672000
C       0.64360000     0.94330000     0.06670000
C       0.34640000     0.06670000     0.94330000
C       0.06670000     0.34640000     0.64360000
C       0.34640000     0.64360000     0.06670000
C       0.06670000     0.64360000     0.94330000
C       0.64360000     0.34640000     0.94330000
C       0.34640000     0.94330000     0.64360000
C       0.06670000     0.94330000     0.34640000
C       0.64360000     0.06670000     0.34640000
C       0.94330000     0.06670000     0.64360000
C       0.94330000     0.34640000     0.06670000
C       0.57157000     0.94327000     0.06559000
C       0.41957000     0.06559000     0.94327000
C       0.06559000     0.41957000     0.57157000
C       0.41957000     0.57157000     0.06559000
C       0.06559000     0.57157000     0.94327000
C       0.57157000     0.41957000     0.94327000
C       0.41957000     0.94327000     0.57157000
C       0.06559000     0.94327000     0.41957000
C       0.57157000     0.06559000     0.41957000
C       0.94327000     0.06559000     0.57157000
C       0.94327000     0.41957000     0.06559000
O       0.96172000     0.96172000     0.96172000
O       0.05207000     0.05207000     0.05207000
O       0.93980000     0.79500000     0.20590000
O       0.93817000     0.05449000     0.20897000
O       0.05449000     0.93817000     0.79837000
O       0.20897000     0.79837000     0.93817000
O       0.79837000     0.20897000     0.05449000
O       0.20897000     0.05449000     0.79837000
O       0.79837000     0.05449000     0.93817000
O       0.05449000     0.20897000     0.93817000
O       0.20897000     0.93817000     0.05449000
O       0.79837000     0.93817000     0.20897000
O       0.05449000     0.79837000     0.20897000
O       0.93817000     0.79837000     0.05449000
O       0.93817000     0.20897000     0.79837000
O       0.79500000     0.93980000     0.05930000
O       0.20590000     0.05930000     0.93980000
O       0.05930000     0.20590000     0.79500000
O       0.20590000     0.79500000     0.05930000
O       0.05930000     0.79500000     0.93980000
O       0.79500000     0.20590000     0.93980000
O       0.20590000     0.93980000     0.79500000
O       0.05930000     0.93980000     0.20590000
O       0.79500000     0.05930000     0.20590000
O       0.93980000     0.05930000     0.79500000
O       0.93980000     0.20590000     0.05930000
O       0.05207000     0.05207000     0.84379000
O       0.05207000     0.84379000     0.05207000
O       0.84379000     0.05207000     0.05207000
O       0.96172000     0.96172000     0.11484000
O       0.96172000     0.11484000     0.96172000
O       0.11484000     0.96172000     0.96172000
Zr      0.09320000     0.09320000     0.90680000
Zr      0.90680000     0.90680000     0.09320000
Zr      0.90680000     0.09320000     0.90680000
Zr      0.90680000     0.09320000     0.09320000
Zr      0.09320000     0.90680000     0.09320000
Zr      0.09320000     0.90680000     0.90680000
