 # fodMC guess
  
 _chemical_name_common                  'UiO-66'
_cell_length_a                           14.83396890
_cell_length_b                           14.83396890
_cell_length_c                           14.83396890
_cell_angle_alpha                        60.0000
_cell_angle_beta                         60.0000
_cell_angle_gamma                        60.0000
 _space_group_name_H-M_alt              'P 1'
 loop_
    _atom_site_type_symbol
    _atom_site_fract_x
    _atom_site_fract_y
    _atom_site_fract_z
H       0.59090000     0.13800000     0.42200000
H       0.13800000     0.59090000     0.84910000
H       0.42200000     0.84910000     0.59090000
H       0.84910000     0.42200000     0.13800000
H       0.42200000     0.13800000     0.84910000
H       0.84910000     0.13800000     0.59090000
H       0.13800000     0.42200000     0.59090000
H       0.42200000     0.59090000     0.13800000
H       0.84910000     0.59090000     0.42200000
H       0.13800000     0.84910000     0.42200000
H       0.59090000     0.84910000     0.13800000
H       0.59090000     0.42200000     0.84910000
H       0.59090000     0.13800000     0.84910000
H       0.13800000     0.59090000     0.42200000
H       0.42200000     0.84910000     0.13800000
H       0.84910000     0.42200000     0.59090000
H       0.42200000     0.13800000     0.59090000
H       0.84910000     0.13800000     0.42200000
H       0.13800000     0.42200000     0.84910000
H       0.42200000     0.59090000     0.84910000
H       0.84910000     0.59090000     0.13800000
H       0.13800000     0.84910000     0.59090000
H       0.59090000     0.84910000     0.42200000
H       0.59090000     0.42200000     0.13800000
H       0.09377000     0.09377000     0.71869000
H       0.09377000     0.71869000     0.09377000
H       0.09377000     0.09377000     0.09377000
H       0.71869000     0.09377000     0.09377000
C       0.99590000     0.30880000     0.99590000
C       0.55340000     0.07530000     0.45960000
C       0.07530000     0.55340000     0.91170000
C       0.45960000     0.91170000     0.55340000
C       0.91170000     0.45960000     0.07530000
C       0.45960000     0.07530000     0.91170000
C       0.91170000     0.07530000     0.55340000
C       0.07530000     0.45960000     0.55340000
C       0.45960000     0.55340000     0.07530000
C       0.91170000     0.55340000     0.45960000
C       0.07530000     0.91170000     0.45960000
C       0.55340000     0.91170000     0.07530000
C       0.55340000     0.45960000     0.91170000
C       0.55340000     0.07530000     0.91170000
C       0.07530000     0.55340000     0.45960000
C       0.45960000     0.91170000     0.07530000
C       0.91170000     0.45960000     0.55340000
C       0.45960000     0.07530000     0.55340000
C       0.91170000     0.07530000     0.45960000
C       0.07530000     0.45960000     0.91170000
C       0.45960000     0.55340000     0.91170000
C       0.91170000     0.55340000     0.07530000
C       0.07530000     0.91170000     0.55340000
C       0.55340000     0.91170000     0.45960000
C       0.55340000     0.45960000     0.07530000
C       0.30880000     0.99590000     0.69940000
C       0.99590000     0.69940000     0.99590000
C       0.69940000     0.99590000     0.30880000
C       0.99590000     0.30880000     0.69940000
C       0.69940000     0.30880000     0.99590000
C       0.30880000     0.99590000     0.99590000
C       0.99590000     0.99590000     0.30880000
C       0.69940000     0.99590000     0.99590000
C       0.30880000     0.69940000     0.99590000
C       0.99590000     0.69940000     0.30880000
C       0.99590000     0.99590000     0.69940000
C       0.60050000     0.99380000     0.99380000
C       0.99380000     0.60050000     0.41190000
C       0.41190000     0.99380000     0.99380000
C       0.99380000     0.41190000     0.60050000
C       0.41190000     0.99380000     0.60050000
C       0.99380000     0.99380000     0.41190000
C       0.99380000     0.41190000     0.99380000
C       0.41190000     0.60050000     0.99380000
C       0.99380000     0.60050000     0.99380000
C       0.99380000     0.99380000     0.60050000
C       0.60050000     0.99380000     0.41190000
C       0.60050000     0.41190000     0.99380000
O       0.06727000     0.06727000     0.06727000
O       0.73730000     0.07360000     0.26790000
O       0.07360000     0.73730000     0.92120000
O       0.26790000     0.92120000     0.73730000
O       0.92120000     0.26790000     0.07360000
O       0.26790000     0.07360000     0.92120000
O       0.92120000     0.07360000     0.73730000
O       0.07360000     0.26790000     0.73730000
O       0.26790000     0.73730000     0.07360000
O       0.92120000     0.73730000     0.26790000
O       0.07360000     0.92120000     0.26790000
O       0.73730000     0.92120000     0.07360000
O       0.73730000     0.26790000     0.92120000
O       0.73730000     0.07360000     0.92120000
O       0.07360000     0.73730000     0.26790000
O       0.26790000     0.92120000     0.07360000
O       0.92120000     0.26790000     0.73730000
O       0.26790000     0.07360000     0.73730000
O       0.92120000     0.07360000     0.26790000
O       0.07360000     0.26790000     0.92120000
O       0.26790000     0.73730000     0.92120000
O       0.92120000     0.73730000     0.07360000
O       0.07360000     0.92120000     0.73730000
O       0.73730000     0.92120000     0.26790000
O       0.73730000     0.26790000     0.07360000
O       0.06727000     0.06727000     0.79819000
O       0.06727000     0.79819000     0.06727000
O       0.79819000     0.06727000     0.06727000
O       0.95057000     0.95057000     0.95057000
O       0.14829000     0.95057000     0.95057000
O       0.95057000     0.14829000     0.95057000
O       0.95057000     0.95057000     0.14829000
Zr      0.87960000     0.12040000     0.12040000
Zr      0.12040000     0.87960000     0.87960000
Zr      0.12040000     0.12040000     0.87960000
Zr      0.87960000     0.12040000     0.87960000
Zr      0.12040000     0.87960000     0.12040000
Zr      0.87960000     0.87960000     0.12040000
